Circuit: * C:\Users\Keshav\Documents\LTspiceXVII\EEL535_2018eeb1158_1\1\Inverter_testckt.asc

Direct Newton iteration failed to find .op point.  (Use ".option noopiter" to skip.)
Starting Gmin stepping
Gmin = 10
Gmin = 1.07374
Gmin = 0.115292
Gmin = 0.0123794
Gmin = 0.00132923
Gmin = 0.000142725
Gmin = 1.5325e-005
Gmin = 1.6455e-006
Gmin = 1.76685e-007
Gmin = 1.89714e-008
Gmin = 2.03704e-009
Gmin = 2.18725e-010
Gmin = 2.34854e-011
Gmin = 2.52173e-012
vernier = 0.5
Gmin = 4.23076e-013
vernier = 0.25
vernier = 0.125
Gmin = 2.62727e-013
vernier = 0.0625
vernier = 0.03125
vernier = 0.0416667
vernier = 0.0208333
Gmin = 2.57911e-013
vernier = 0.0104167
vernier = 0.00520833
Gmin = 2.5359e-013
vernier = 0.00260417
vernier = 0.00130208
vernier = 0.000651042
Gmin = 2.52766e-013
vernier = 0.000488281
Gmin = 0
Gmin stepping succeeded in finding the operating point.


Date: Sun Nov 22 13:49:59 2020
Total elapsed time: 0.285 seconds.

tnom = 27
temp = 27
method = modified trap
totiter = 7392
traniter = 4055
tranpoints = 1619
accept = 1517
rejected = 102
matrix size = 13
fillins = 2
solver = Normal
Matrix Compiler1: 840 bytes object code size  0.2/0.1/[0.1]
Matrix Compiler2: 1.02 KB object code size  0.1/0.2/[0.1]

