Circuit: * C:\Users\Keshav\Documents\LTspiceXVII\Halfsubtractor\Inverter.asc

Direct Newton iteration for .op point succeeded.

Date: Mon Nov 09 23:18:46 2020
Total elapsed time: 0.137 seconds.

tnom = 27
temp = 27
method = modified trap
totiter = 3870
traniter = 3851
tranpoints = 1563
accept = 1462
rejected = 101
matrix size = 13
fillins = 2
solver = Normal
Matrix Compiler1: 840 bytes object code size  0.2/0.1/[0.1]
Matrix Compiler2: off  [0.1]/0.1/0.1

